24

Au        0.0         0.0      -12.0   
Au        0.0         0.0       -9.0   
Au        0.0         0.0       -6.0   
Au        0.0         0.0       -3.0   
Au        0.0         0.0        0.0   
Au        0.0         0.0        3.0   
Au        0.0         0.0        6.0   
Au        0.0         0.0        9.0   
Au        0.0         0.0       12.0   
Au        0.0         0.0       15.0   
Au        0.0         0.0       18.0   
Au        0.0         0.0       21.0   
Au        0.0         0.0       24.0       
Au        0.0         0.0       27.0       
Au        0.0         0.0       30.0       
Au        0.0         0.0       33.0       
Au        0.0         0.0       36.0       
Au        0.0         0.0       39.0       
Au        0.0         0.0       42.0       
Au        0.0         0.0       45.0       
Au        0.0         0.0       48.0       
Au        0.0         0.0       51.0       
Au        0.0         0.0       54.0       
Au        0.0         0.0       57.0       
